*SPEF "1481-1998"
*DESIGN "prob1"
*DATE "Sun Apr  5 15:39:26 2026"
*VENDOR "Synopsys, Inc."
*PROGRAM "icc2 /home/synopsys_install/icc2/W-2024.09/linux64/nwtn/bin/icc2_exec"
*VERSION "W-2024.09 Aug 25, 2024"
*DESIGN_FLOW "ICC2 SPEF DR"
*DIVIDER /
*DELIMITER :
*BUS_DELIMITER [ ]
*T_UNIT 1 NS
*C_UNIT 1 FF
*R_UNIT 1 OHM
*L_UNIT 1 HENRY

// XY_UNIT 1 UM
// PARASITIC_TECH p1 at 125.000 degree

*NAME_MAP
*1 clk
*2 X[15]
*3 X[14]
*4 X[13]
*5 X[12]
*6 X[11]
*7 X[10]
*8 X[9]
*9 X[8]
*10 X[7]
*11 X[6]
*12 X[5]
*13 X[4]
*14 X[3]
*15 X[2]
*16 X[1]
*17 X[0]
*18 Z[1]
*19 Z[0]
*20 Y[15]
*21 Y[14]
*22 Y[13]
*23 Y[12]
*24 Y[11]
*25 Y[10]
*26 Y[9]
*27 Y[8]
*28 Y[7]
*29 Y[6]
*30 Y[5]
*31 Y[4]
*32 Y[3]
*33 Y[2]
*34 Y[1]
*35 Y[0]
*36 VDD
*37 VSS
*38 X_reg_reg[15]
*39 X_reg_reg[14]
*40 X_reg_reg[13]
*41 X_reg_reg[12]
*42 X_reg_reg[11]
*43 X_reg_reg[10]
*44 X_reg_reg[9]
*45 X_reg_reg[8]
*46 X_reg_reg[7]
*47 X_reg_reg[6]
*48 X_reg_reg[5]
*49 X_reg_reg[4]
*50 X_reg_reg[3]
*51 X_reg_reg[2]
*52 X_reg_reg[1]
*53 X_reg_reg[0]
*54 Z_reg_reg[1]
*55 Z_reg_reg[0]
*56 Y_reg[14]
*57 Y_reg[13]
*58 Y_reg[15]
*59 Y_reg[12]
*60 Y_reg[10]
*61 Y_reg[11]
*62 Y_reg[0]
*63 Y_reg[1]
*64 Y_reg[2]
*65 Y_reg[3]
*66 Y_reg[4]
*67 Y_reg[5]
*68 Y_reg[6]
*69 Y_reg[7]
*70 Y_reg[8]
*71 Y_reg[9]
*72 U38
*73 U39
*74 U40
*75 U41
*76 U42
*77 U43
*78 U44
*79 U45
*80 U46
*81 U47
*82 U48
*83 U49
*84 U50
*85 U51
*86 U52
*87 U67
*88 U68
*89 U69
*90 U70
*91 U71
*92 U72
*93 U73
*94 U74
*95 U75
*96 U76
*97 U77
*98 U78
*99 U79
*100 U80
*101 U81
*102 U82
*103 U83
*104 copt_h_inst_866
*105 copt_h_inst_867
*106 copt_h_inst_868
*107 copt_h_inst_869
*108 copt_h_inst_870
*109 copt_h_inst_871
*110 copt_h_inst_872
*111 copt_h_inst_874
*112 copt_h_inst_875
*113 copt_h_inst_876
*114 copt_h_inst_877
*115 copt_h_inst_878
*116 copt_h_inst_879
*117 copt_h_inst_880
*118 copt_h_inst_881
*119 copt_h_inst_882
*120 copt_h_inst_883
*121 copt_h_inst_884
*122 copt_h_inst_885
*123 copt_h_inst_887
*124 copt_h_inst_888
*125 copt_h_inst_889
*126 copt_h_inst_890
*127 copt_h_inst_891
*128 copt_h_inst_892
*129 copt_h_inst_893
*130 copt_h_inst_894
*131 copt_h_inst_895
*132 copt_h_inst_896
*133 copt_h_inst_897
*134 copt_h_inst_898
*135 copt_h_inst_899
*136 copt_net_0
*137 copt_net_1
*138 n20
*139 n21
*140 n22
*141 n23
*142 n24
*143 n25
*144 n26
*145 n27
*146 n28
*147 n29
*148 n30
*149 n31
*150 n32
*151 n33
*152 n34
*153 n35
*154 n50
*155 n51
*156 n52
*157 n53
*158 n54
*159 n55
*160 n56
*161 n57
*162 n58
*163 n59
*164 n60
*165 n61
*166 n62
*167 n63
*168 n64
*169 X_reg[15]
*170 X_reg[14]
*171 X_reg[13]
*172 X_reg[12]
*173 X_reg[11]
*174 X_reg[10]
*175 X_reg[9]
*176 X_reg[8]
*177 X_reg[7]
*178 X_reg[6]
*179 X_reg[5]
*180 X_reg[4]
*181 X_reg[3]
*182 X_reg[2]
*183 X_reg[1]
*184 X_reg[0]
*185 Z_reg[1]
*186 Z_reg[0]
*187 copt_net_2
*188 Y_comb[14]
*189 Y_comb[13]
*190 copt_net_3
*191 copt_net_4
*192 copt_net_5
*193 copt_net_6
*194 copt_net_8
*195 copt_net_9
*196 copt_net_10
*197 copt_net_11
*198 copt_net_12
*199 copt_net_13
*200 copt_net_14
*201 copt_net_15
*202 copt_net_16
*203 copt_net_17
*204 copt_net_18
*205 copt_net_19
*206 copt_net_21
*207 copt_net_22
*208 copt_net_23
*209 copt_net_24
*210 copt_net_25
*211 copt_net_26
*212 copt_net_27
*213 copt_net_28
*214 copt_net_29
*215 copt_net_30
*216 copt_net_31
*217 copt_net_32
*218 copt_net_33

*PORTS

*1 I *C 11.999 23.240
*2 I *C 24.760 0.143
*3 I *C 21.264 0.143
*4 I *C 17.160 0.143
*5 I *C 20.504 0.143
*6 I *C 20.504 0.143
*7 I *C 18.680 0.143
*8 I *C 18.376 0.143
*9 I *C 20.960 0.143
*10 I *C 18.072 0.143
*11 I *C 26.888 0.143
*12 I *C 21.720 0.143
*13 I *C 17.768 0.143
*14 I *C 16.856 0.143
*15 I *C 22.024 0.143
*16 I *C 17.464 0.143
*17 I *C 17.160 0.143
*18 I *C 11.999 25.368
*19 I *C 11.999 18.984
*20 O *C 35.697 11.688
*21 O *C 35.697 6.824
*22 O *C 27.192 0.143
*23 O *C 35.697 23.848
*24 O *C 35.697 20.808
*25 O *C 35.697 17.768
*26 O *C 35.697 14.728
*27 O *C 35.697 29.624
*28 O *C 35.697 35.096
*29 O *C 35.697 38.440
*30 O *C 36.920 41.943
*31 O *C 36.616 41.943
*32 O *C 37.528 41.943
*33 O *C 39.048 41.943
*34 O *C 11.999 40.264
*35 O *C 11.999 39.352
*36 I *C 23.848 32.588
*37 I *C 23.848 32.588

*D_NET *136 0.9254285 //LENGTH 10.405 LUMPCC 0 DR

*CONN
*I *104:Y O *L 0 *C 17.008 39.504
*I *62:SETB I *L 0.55078 *C 20.188 32.684
*N *136:2 *C 20.061 32.664
*N *136:3 *C 20.048 32.678
*N *136:4 *C 20.048 33.562
*N *136:5 *C 20.035 33.576
*N *136:6 *C 17.021 33.576
*N *136:7 *C 17.008 33.590
*N *136:8 *C 17.008 39.491

*CAP
0 *104:Y 0.001
1 *62:SETB 0.01426396
2 *136:2 0.01218857
3 *136:3 0.0640984
4 *136:4 0.06380159
5 *136:5 0.1373987
6 *136:6 0.1373987
7 *136:7 0.2483556
8 *136:8 0.246923

*RES
0 *104:Y *136:8 1
1 *136:2 *62:SETB 0.2116667
2 *136:3 *136:2 1
3 *136:4 *136:3 1.580357
4 *136:5 *136:4 0.5
5 *136:7 *136:6 0.5
6 *136:6 *136:5 5.380358
7 *136:8 *136:7 10.5375

*END

*D_NET *137 1.399521 //LENGTH 14.971 LUMPCC 0 DR

*CONN
*I *105:Y O *L 0 *C 28.408 6.064
*I *100:A2 I *L 0.53006 *C 27.770 12.296
*I *58:RSTB I *L 0.768783 *C 26.888 13.512
*I *98:A2 I *L 0.53006 *C 24.859 8.952
*I *99:A2 I *L 0.572974 *C 23.240 9.408
*N *137:5 *C 23.240 9.395
*N *137:6 *C 23.240 8.953
*N *137:7 *C 23.241 8.952
*N *137:8 *C 24.912 8.770
*N *137:9 *C 24.912 8.952
*N *137:10 *C 24.912 8.940
*N *137:11 *C 24.912 8.952
*N *137:12 *C 26.888 13.498
*N *137:13 *C 26.888 12.309
*N *137:14 *C 26.902 12.296
*N *137:15 *C 27.331 12.296
*N *137:16 *C 27.359 12.296
*N *137:17 *C 27.344 12.283
*N *137:18 *C 27.344 8.966
*N *137:19 *C 27.344 8.952
*N *137:20 *C 28.395 8.952
*N *137:21 *C 28.408 8.939
*N *137:22 *C 28.408 6.078

*CAP
0 *105:Y 0.001
1 *100:A2 0.02753416
2 *58:RSTB 0.001
3 *98:A2 0.008280701
4 *99:A2 0.001
5 *137:5 0.02391608
6 *137:6 0.02534876
7 *137:7 0.06912123
8 *137:8 0.01953954
9 *137:9 0.006205303
10 *137:10 0.01509192
11 *137:11 0.1615006
12 *137:12 0.08546098
13 *137:13 0.08689366
14 *137:14 0.02097487
15 *137:15 0.02097487
16 *137:16 0.02545876
17 *137:17 0.198009
18 *137:18 0.2000844
19 *137:19 0.1319387
20 *137:20 0.03955929
21 *137:21 0.1160305
22 *137:22 0.1145979

*RES
0 *105:Y *137:22 1
1 *137:21 *137:20 0.5
2 *137:20 *137:19 1.875893
3 *137:22 *137:21 5.108929
4 *137:16 *100:A2 0.8220001
5 *137:17 *137:16 1
6 *137:17 *137:15 0.5
7 *137:18 *137:17 5.923215
8 *137:19 *137:18 0.5
9 *137:19 *137:11 4.342857
10 *137:15 *137:14 0.7660714
11 *137:13 *137:12 2.123214
12 *137:14 *137:13 0.5
13 *137:12 *58:RSTB 1
14 *137:10 *137:9 1
15 *137:10 *137:8 0.2825
16 *137:11 *137:10 0.5
17 *137:11 *137:7 2.983929
18 *137:9 *98:A2 0.09166668
19 *137:6 *137:5 0.788393
20 *137:7 *137:6 0.5
21 *137:5 *99:A2 1

*END

*D_NET *1 10.52589 //LENGTH 136.663 LUMPCC 0 DR

*CONN
*P *1 I *L 0 *C 12.114 23.240
*I *53:CLK I *L 0.714381 *C 17.464 18.224
*I *52:CLK I *L 0.714381 *C 17.616 18.528
*I *42:CLK I *L 0.714381 *C 21.416 18.224
*I *40:CLK I *L 0.714381 *C 17.464 14.880
*I *41:CLK I *L 0.714381 *C 20.960 11.840
*I *38:CLK I *L 0.714381 *C 23.544 11.536
*I *57:CLK I *L 0.714381 *C 23.544 8.192
*I *56:CLK I *L 0.714381 *C 27.496 11.536
*I *47:CLK I *L 0.714381 *C 27.496 8.496
*I *44:CLK I *L 0.714381 *C 17.464 11.536
*I *43:CLK I *L 0.714381 *C 18.376 8.496
*I *39:CLK I *L 0.714381 *C 18.680 5.152
*I *46:CLK I *L 0.714381 *C 17.464 25.216
*I *54:CLK I *L 0.714381 *C 17.464 28.256
*I *68:CLK I *L 0.717204 *C 27.648 34.944
*I *67:CLK I *L 0.717204 *C 27.648 35.248
*I *66:CLK I *L 0.717204 *C 27.496 38.592
*I *65:CLK I *L 0.717204 *C 26.280 41.632
*I *64:CLK I *L 0.717204 *C 25.328 44.976
*I *69:CLK I *L 0.717204 *C 27.648 31.600
*I *63:CLK I *L 0.717204 *C 21.872 34.944
*I *62:CLK I *L 0.717204 *C 21.112 31.904
*I *51:CLK I *L 0.714381 *C 20.808 28.560
*I *49:CLK I *L 0.714381 *C 17.464 31.600
*I *55:CLK I *L 0.714381 *C 17.464 34.944
*I *50:CLK I *L 0.714381 *C 17.464 21.872
*I *48:CLK I *L 0.714381 *C 20.960 21.568
*I *45:CLK I *L 0.714381 *C 21.112 24.912
*I *60:CLK I *L 0.717204 *C 27.648 18.528
*I *58:CLK I *L 0.717204 *C 27.648 14.880
*I *71:CLK I *L 0.717204 *C 27.648 15.184
*I *59:CLK I *L 0.717204 *C 27.648 24.912
*I *70:CLK I *L 0.717204 *C 27.648 28.256
*I *61:CLK I *L 0.717204 *C 27.648 21.872
*N *1:35 *C 27.648 21.886
*N *1:36 *C 27.648 23.227
*N *1:37 *C 27.636 23.240
*N *1:38 *C 27.648 28.244
*N *1:39 *C 27.648 28.104
*N *1:40 *C 27.636 28.104
*N *1:41 *C 27.496 28.104
*N *1:42 *C 27.496 28.091
*N *1:43 *C 27.648 24.899
*N *1:44 *C 27.648 24.760
*N *1:45 *C 27.636 24.760
*N *1:46 *C 27.496 24.760
*N *1:47 *C 27.496 24.760
*N *1:48 *C 27.648 15.171
*N *1:49 *C 27.648 14.893
*N *1:50 *C 27.648 15.032
*N *1:51 *C 27.648 15.032
*N *1:52 *C 27.788 15.032
*N *1:53 *C 27.799 15.032
*N *1:54 *C 27.496 15.032
*N *1:55 *C 27.648 18.515
*N *1:56 *C 27.648 18.376
*N *1:57 *C 27.636 18.376
*N *1:58 *C 27.496 18.376
*N *1:59 *C 27.496 18.376
*N *1:60 *C 27.496 23.240
*N *1:61 *C 27.509 23.240
*N *1:62 *C 20.930 24.760
*N *1:63 *C 21.112 24.899
*N *1:64 *C 21.112 24.760
*N *1:65 *C 21.100 24.760
*N *1:66 *C 21.112 24.747
*N *1:67 *C 21.112 23.254
*N *1:68 *C 21.126 23.240
*N *1:69 *C 20.960 21.582
*N *1:70 *C 20.960 23.227
*N *1:71 *C 20.973 23.240
*N *1:72 *C 17.464 21.886
*N *1:73 *C 17.464 23.227
*N *1:74 *C 17.282 34.792
*N *1:75 *C 17.464 34.931
*N *1:76 *C 17.464 34.792
*N *1:77 *C 17.451 34.792
*N *1:78 *C 17.464 34.779
*N *1:79 *C 17.282 31.448
*N *1:80 *C 17.464 31.588
*N *1:81 *C 17.464 31.448
*N *1:82 *C 17.451 31.448
*N *1:83 *C 17.464 31.448
*N *1:84 *C 20.808 28.574
*N *1:85 *C 20.808 29.915
*N *1:86 *C 20.930 32.056
*N *1:87 *C 21.112 31.904
*N *1:88 *C 21.112 32.044
*N *1:89 *C 21.100 32.056
*N *1:90 *C 21.112 32.043
*N *1:91 *C 21.872 34.931
*N *1:92 *C 21.872 34.792
*N *1:93 *C 21.860 34.792
*N *1:94 *C 21.720 34.792
*N *1:95 *C 21.720 34.779
*N *1:96 *C 27.648 31.588
*N *1:97 *C 27.648 31.448
*N *1:98 *C 27.635 31.448
*N *1:99 *C 25.229 44.976
*N *1:100 *C 25.216 44.964
*N *1:101 *C 25.216 44.824
*N *1:102 *C 25.230 44.824
*N *1:103 *C 26.267 44.824
*N *1:104 *C 26.280 44.811
*N *1:105 *C 26.098 41.480
*N *1:106 *C 26.280 41.620
*N *1:107 *C 26.280 41.480
*N *1:108 *C 26.268 41.480
*N *1:109 *C 26.280 41.480
*N *1:110 *C 26.280 38.744
*N *1:111 *C 27.496 38.592
*N *1:112 *C 27.496 38.732
*N *1:113 *C 27.483 38.744
*N *1:114 *C 26.598 38.744
*N *1:115 *C 26.584 38.730
*N *1:116 *C 27.648 35.236
*N *1:117 *C 27.648 34.956
*N *1:118 *C 27.648 35.096
*N *1:119 *C 27.635 35.096
*N *1:120 *C 27.496 35.096
*N *1:121 *C 27.496 34.792
*N *1:122 *C 26.598 34.792
*N *1:123 *C 26.584 34.792
*N *1:124 *C 26.584 31.462
*N *1:125 *C 26.584 31.448
*N *1:126 *C 21.733 31.448
*N *1:127 *C 21.720 31.448
*N *1:128 *C 21.720 31.158
*N *1:129 *C 21.707 31.144
*N *1:130 *C 21.126 31.144
*N *1:131 *C 21.112 31.158
*N *1:132 *C 20.808 31.144
*N *1:133 *C 20.808 29.942
*N *1:134 *C 20.794 29.928
*N *1:135 *C 17.477 29.928
*N *1:136 *C 17.464 29.928
*N *1:137 *C 17.282 28.104
*N *1:138 *C 17.464 28.244
*N *1:139 *C 17.464 28.104
*N *1:140 *C 17.451 28.104
*N *1:141 *C 17.464 28.104
*N *1:142 *C 17.282 25.064
*N *1:143 *C 17.464 25.204
*N *1:144 *C 17.464 25.064
*N *1:145 *C 17.451 25.064
*N *1:146 *C 17.464 25.064
*N *1:147 *C 18.498 5.304
*N *1:148 *C 18.680 5.152
*N *1:149 *C 18.680 5.292
*N *1:150 *C 18.668 5.304
*N *1:151 *C 18.680 5.317
*N *1:152 *C 18.680 8.331
*N *1:153 *C 18.666 8.344
*N *1:154 *C 18.376 8.344
*N *1:155 *C 18.376 8.496
*N *1:156 *C 18.376 8.636
*N *1:157 *C 18.376 8.647
*N *1:158 *C 17.477 8.648
*N *1:159 *C 17.464 8.662
*N *1:160 *C 17.282 11.384
*N *1:161 *C 17.464 11.524
*N *1:162 *C 17.464 11.384
*N *1:163 *C 17.451 11.384
*N *1:164 *C 17.464 11.384
*N *1:165 *C 27.314 8.648
*N *1:166 *C 27.496 8.496
*N *1:167 *C 27.496 8.636
*N *1:168 *C 27.484 8.648
*N *1:169 *C 27.496 8.662
*N *1:170 *C 27.496 11.370
*N *1:171 *C 27.496 11.524
*N *1:172 *C 27.496 11.384
*N *1:173 *C 27.483 11.384
*N *1:174 *C 23.362 8.040
*N *1:175 *C 23.544 8.180
*N *1:176 *C 23.544 8.040
*N *1:177 *C 23.532 8.040
*N *1:178 *C 23.544 8.053
*N *1:179 *C 23.544 11.370
*N *1:180 *C 23.544 11.524
*N *1:181 *C 23.544 11.384
*N *1:182 *C 23.544 11.384
*N *1:183 *C 23.544 11.992
*N *1:184 *C 20.960 11.840
*N *1:185 *C 20.960 11.979
*N *1:186 *C 20.960 11.992
*N *1:187 *C 17.477 11.992
*N *1:188 *C 17.464 11.992
*N *1:189 *C 17.282 14.728
*N *1:190 *C 17.464 14.868
*N *1:191 *C 17.464 14.728
*N *1:192 *C 17.451 14.728
*N *1:193 *C 17.464 14.728
*N *1:194 *C 21.416 18.212
*N *1:195 *C 21.416 18.072
*N *1:196 *C 21.402 18.072
*N *1:197 *C 17.616 18.515
*N *1:198 *C 17.616 18.072
*N *1:199 *C 17.464 18.212
*N *1:200 *C 17.465 18.072
*N *1:201 *C 17.477 18.072
*N *1:202 *C 17.464 18.072
*N *1:203 *C 17.464 23.240
*N *1:204 *C 17.464 23.240

*CAP
0 *1 0.1747889
1 *53:CLK 0.001
2 *52:CLK 0.001
3 *42:CLK 0.001
4 *40:CLK 0.001
5 *41:CLK 0.001
6 *38:CLK 0.001
7 *57:CLK 0.001
8 *56:CLK 0.001
9 *47:CLK 0.001
10 *44:CLK 0.001
11 *43:CLK 0.001
12 *39:CLK 0.001
13 *46:CLK 0.001
14 *54:CLK 0.001
15 *68:CLK 0.001
16 *67:CLK 0.001
17 *66:CLK 0.001
18 *65:CLK 0.001
19 *64:CLK 0.01496356
20 *69:CLK 0.001
21 *63:CLK 0.001
22 *62:CLK 0.001
23 *51:CLK 0.001
24 *49:CLK 0.001
25 *55:CLK 0.001
26 *50:CLK 0.001
27 *48:CLK 0.001
28 *45:CLK 0.001
29 *60:CLK 0.001
30 *58:CLK 0.001
31 *71:CLK 0.001
32 *59:CLK 0.001
33 *70:CLK 0.001
34 *61:CLK 0.001
35 *1:35 0.08100574
36 *1:36 0.08243842
37 *1:37 0.01123994
38 *1:38 0.01040646
39 *1:39 0.01183914
40 *1:40 0.007998131
41 *1:41 0.007998678
42 *1:42 0.1260338
43 *1:43 0.01212384
44 *1:44 0.01355652
45 *1:45 0.009362792
46 *1:46 0.009363337
47 *1:47 0.1850117
48 *1:48 0.005601558
49 *1:49 0.005601558
50 *1:50 0.01644069
51 *1:51 0.007668927
52 *1:52 0.007669472
53 *1:53 0.009969813
54 *1:54 0.1328258
55 *1:55 0.007980559
56 *1:56 0.009413238
57 *1:57 0.007771168
58 *1:58 0.007771714
59 *1:59 0.2936543
60 *1:60 0.2321479
61 *1:61 0.2998597
62 *1:62 0.01215249
63 *1:63 0.01133248
64 *1:64 0.01276516
65 *1:65 0.007408604
66 *1:66 0.05908481
67 *1:67 0.05908481
68 *1:68 0.2971818
69 *1:69 0.1074602
70 *1:70 0.1088929
71 *1:71 0.1595891
72 *1:72 0.05520708
73 *1:73 0.05663976
74 *1:74 0.01078737
75 *1:75 0.01345005
76 *1:76 0.01488273
77 *1:77 0.006043476
78 *1:78 0.1074122
79 *1:79 0.01069276
80 *1:80 0.006650159
81 *1:81 0.008082838
82 *1:82 0.005948873
83 *1:83 0.156739
84 *1:84 0.08960169
85 *1:85 0.09103437
86 *1:86 0.01243236
87 *1:87 0.01791175
88 *1:88 0.01934442
89 *1:89 0.007688474
90 *1:90 0.0400616
91 *1:91 0.01607644
92 *1:92 0.01750911
93 *1:93 0.008313094
94 *1:94 0.00831364
95 *1:95 0.1217845
96 *1:96 0.01093479
97 *1:97 0.01236747
98 *1:98 0.03860739
99 *1:99 0.01288816
100 *1:100 0.01461892
101 *1:101 0.0143221
102 *1:102 0.04294957
103 *1:103 0.04295012
104 *1:104 0.1179396
105 *1:105 0.013592
106 *1:106 0.01284665
107 *1:107 0.01427933
108 *1:108 0.008848111
109 *1:109 0.2212563
110 *1:110 0.1163222
111 *1:111 0.01634131
112 *1:112 0.01777399
113 *1:113 0.03783066
114 *1:114 0.0378312
115 *1:115 0.1578655
116 *1:116 0.007644866
117 *1:117 0.007200576
118 *1:118 0.02008302
119 *1:119 0.006497944
120 *1:120 0.02140701
121 *1:121 0.04960868
122 *1:122 0.03470016
123 *1:123 0.261063
124 *1:124 0.1138314
125 *1:125 0.2259592
126 *1:126 0.1849796
127 *1:127 0.1362832
128 *1:128 0.01212762
129 *1:129 0.02624719
130 *1:130 0.02624719
131 *1:131 0.05438556
132 *1:132 0.06820728
133 *1:133 0.05151217
134 *1:134 0.1431262
135 *1:135 0.1454984
136 *1:136 0.1084003
137 *1:137 0.01145608
138 *1:138 0.006553795
139 *1:139 0.007986473
140 *1:140 0.006712187
141 *1:141 0.1628431
142 *1:142 0.01261354
143 *1:143 0.007018926
144 *1:144 0.008451605
145 *1:145 0.007869649
146 *1:146 0.169272
147 *1:147 0.01209701
148 *1:148 0.01132045
149 *1:149 0.01275313
150 *1:150 0.007353115
151 *1:151 0.1271082
152 *1:152 0.1271082
153 *1:153 0.01352599
154 *1:154 0.03000066
155 *1:155 0.008775393
156 *1:156 0.01020807
157 *1:157 0.05257165
158 *1:158 0.0384692
159 *1:159 0.09762606
160 *1:160 0.01226989
161 *1:161 0.01557096
162 *1:162 0.01700364
163 *1:163 0.007526
164 *1:164 0.1196629
165 *1:165 0.01228607
166 *1:166 0.01011171
167 *1:167 0.01154439
168 *1:168 0.007542182
169 *1:169 0.1020823
170 *1:170 0.1020823
171 *1:171 0.01726008
172 *1:172 0.01869275
173 *1:173 0.1450724
174 *1:174 0.01175467
175 *1:175 0.008647021
176 *1:176 0.0100797
177 *1:177 0.007010778
178 *1:178 0.1371186
179 *1:179 0.1371186
180 *1:180 0.0126355
181 *1:181 0.01406818
182 *1:182 0.1701905
183 *1:183 0.1278658
184 *1:184 0.01256569
185 *1:185 0.01399837
186 *1:186 0.2459645
187 *1:187 0.1432174
188 *1:188 0.1182464
189 *1:189 0.01176217
190 *1:190 0.0136615
191 *1:191 0.01509417
192 *1:192 0.007018276
193 *1:193 0.2154334
194 *1:194 0.007726285
195 *1:195 0.009158962
196 *1:196 0.1581486
197 *1:197 0.02309617
198 *1:198 0.03529297
199 *1:199 0.01511267
200 *1:200 0.02493725
201 *1:201 0.1557769
202 *1:202 0.3023113
203 *1:203 0.2509616
204 *1:204 0.321072

*RES
0 *1 *1:204 9.553572
1 *1:116 *67:CLK 1
2 *1:117 *68:CLK 1
3 *1:48 *71:CLK 1
4 *1:49 *58:CLK 1
5 *1:50 *1:49 0.2325
6 *1:50 *1:48 0.2325
7 *1:51 *1:50 0.5
8 *1:52 *1:51 0.2325
9 *1:53 *1:52 0.5
10 *1:36 *1:35 2.394643
11 *1:37 *1:36 0.5
12 *1:35 *61:CLK 1
13 *1:61 *1:60 0.5
14 *1:61 *1:37 0.2116667
15 *1:60 *1:59 8.685715
16 *1:60 *1:47 2.714286
17 *1:172 *1:171 0.2325
18 *1:173 *1:172 0.5
19 *1:173 *1:170 0.5
20 *1:171 *56:CLK 1
21 *1:41 *1:40 0.2325
22 *1:42 *1:41 0.5
23 *1:39 *1:38 0.2325
24 *1:40 *1:39 0.5
25 *1:38 *70:CLK 1
26 *1:46 *1:45 0.2325
27 *1:47 *1:46 0.5
28 *1:47 *1:42 5.947322
29 *1:44 *1:43 0.2325
30 *1:45 *1:44 0.5
31 *1:43 *59:CLK 1
32 *1:58 *1:57 0.2325
33 *1:59 *1:58 0.5
34 *1:59 *1:54 5.971429
35 *1:56 *1:55 0.2325
36 *1:57 *1:56 0.5
37 *1:55 *60:CLK 1
38 *1:170 *1:169 4.8375
39 *1:168 *1:167 0.5
40 *1:168 *1:165 0.2825
41 *1:169 *1:168 0.5
42 *1:167 *1:166 0.2325
43 *1:166 *47:CLK 1
44 *1:97 *1:96 0.2325
45 *1:98 *1:97 0.5
46 *1:96 *69:CLK 1
47 *1:114 *1:113 1.580357
48 *1:115 *1:114 0.5
49 *1:115 *1:110 0.5428572
50 *1:112 *1:111 0.2325
51 *1:113 *1:112 0.5
52 *1:111 *66:CLK 1
53 *1:118 *1:117 0.2325
54 *1:118 *1:116 0.2325
55 *1:119 *1:118 0.5
56 *1:122 *1:121 1.604464
57 *1:123 *1:122 0.5
58 *1:123 *1:115 7.033036
59 *1:125 *1:124 0.5
60 *1:125 *1:98 1.875893
61 *1:124 *1:123 5.947322
62 *1:108 *1:107 0.5
63 *1:108 *1:105 0.2825
64 *1:109 *1:108 0.5
65 *1:109 *1:104 5.947322
66 *1:107 *1:106 0.2325
67 *1:106 *65:CLK 1
68 *1:103 *1:102 1.851786
69 *1:104 *1:103 0.5
70 *1:101 *1:100 0.2325
71 *1:102 *1:101 0.5
72 *1:99 *64:CLK 0.1658333
73 *1:100 *1:99 1
74 *1:181 *1:180 0.2325
75 *1:182 *1:181 0.5
76 *1:182 *1:179 0.5
77 *1:182 *1:173 7.033037
78 *1:180 *38:CLK 1
79 *1:179 *1:178 5.923214
80 *1:177 *1:176 0.5
81 *1:177 *1:174 0.2825
82 *1:178 *1:177 0.5
83 *1:176 *1:175 0.2325
84 *1:175 *57:CLK 1
85 *1:126 *1:125 8.661608
86 *1:127 *1:126 0.5
87 *1:127 *1:95 5.947322
88 *1:94 *1:93 0.2325
89 *1:95 *1:94 0.5
90 *1:92 *1:91 0.2325
91 *1:93 *1:92 0.5
92 *1:91 *63:CLK 1
93 *1:128 *1:127 0.5187501
94 *1:129 *1:128 0.5
95 *1:131 *1:130 0.5
96 *1:131 *1:90 1.580357
97 *1:130 *1:129 1.0375
98 *1:70 *1:69 2.9375
99 *1:71 *1:70 0.5
100 *1:71 *1:68 0.255
101 *1:69 *48:CLK 1
102 *1:185 *1:184 0.2325
103 *1:186 *1:185 0.5
104 *1:186 *1:183 4.614286
105 *1:184 *41:CLK 1
106 *1:89 *1:88 0.5
107 *1:89 *1:86 0.2825
108 *1:90 *1:89 0.5
109 *1:88 *1:87 0.2325
110 *1:87 *62:CLK 1
111 *1:68 *1:67 0.5
112 *1:68 *1:61 11.39822
113 *1:67 *1:66 2.666071
114 *1:65 *1:64 0.5
115 *1:65 *1:62 0.2825
116 *1:66 *1:65 0.5
117 *1:64 *1:63 0.2325
118 *1:63 *45:CLK 1
119 *1:134 *1:133 0.5
120 *1:134 *1:85 0.5
121 *1:133 *1:132 2.147322
122 *1:85 *1:84 2.394643
123 *1:84 *51:CLK 1
124 *1:153 *1:152 0.5
125 *1:152 *1:151 5.380358
126 *1:150 *1:149 0.5
127 *1:150 *1:147 0.2825
128 *1:151 *1:150 0.5
129 *1:149 *1:148 0.2325
130 *1:148 *39:CLK 1
131 *1:156 *1:155 0.2325
132 *1:157 *1:156 0.5
133 *1:157 *1:154 0.5410715
134 *1:155 *43:CLK 1
135 *1:197 *52:CLK 1
136 *1:195 *1:194 0.2325
137 *1:196 *1:195 0.5
138 *1:194 *42:CLK 1
139 *1:135 *1:134 5.923214
140 *1:136 *1:135 0.5
141 *1:136 *1:83 2.714286
142 *1:204 *1:203 0.5
143 *1:204 *1:73 0.5
144 *1:204 *1:71 6.265179
145 *1:203 *1:202 9.228572
146 *1:203 *1:146 3.257143
147 *1:73 *1:72 2.394643
148 *1:72 *50:CLK 1
149 *1:199 *53:CLK 1
150 *1:201 *1:200 0.5
151 *1:201 *1:196 7.008929
152 *1:202 *1:201 0.5
153 *1:202 *1:193 5.971429
154 *1:200 *1:199 0.2325
155 *1:200 *1:198 0.2696429
156 *1:187 *1:186 6.21875
157 *1:188 *1:187 0.5
158 *1:188 *1:164 1.085714
159 *1:158 *1:157 1.604465
160 *1:159 *1:158 0.5
161 *1:77 *1:76 0.5
162 *1:77 *1:74 0.2825
163 *1:78 *1:77 0.5
164 *1:76 *1:75 0.2325
165 *1:75 *55:CLK 1
166 *1:82 *1:81 0.5
167 *1:82 *1:79 0.2825
168 *1:83 *1:82 0.5
169 *1:83 *1:78 5.947322
170 *1:81 *1:80 0.2325
171 *1:80 *49:CLK 1
172 *1:140 *1:139 0.5
173 *1:140 *1:137 0.2825
174 *1:141 *1:140 0.5
175 *1:141 *1:136 3.257143
176 *1:139 *1:138 0.2325
177 *1:138 *54:CLK 1
178 *1:145 *1:144 0.5
179 *1:145 *1:142 0.2825
180 *1:146 *1:145 0.5
181 *1:146 *1:141 5.428572
182 *1:144 *1:143 0.2325
183 *1:143 *46:CLK 1
184 *1:192 *1:191 0.5
185 *1:192 *1:189 0.2825
186 *1:193 *1:192 0.5
187 *1:193 *1:188 4.885715
188 *1:191 *1:190 0.2325
189 *1:190 *40:CLK 1
190 *1:163 *1:162 0.5
191 *1:163 *1:160 0.2825
192 *1:164 *1:163 0.5
193 *1:164 *1:159 4.861607
194 *1:162 *1:161 0.2325
195 *1:161 *44:CLK 1
196 *1:198 *1:197 0.7901786
197 *1:183 *1:182 1.085714
198 *1:154 *1:153 0.51875
199 *1:121 *1:120 0.5428572
200 *1:120 *1:119 0.2473214
201 *1:132 *1:131 0.5428572
202 *1:110 *1:109 4.885715
203 *1:54 *1:53 0.5410715

*END

*D_NET *2 1.005383 //LENGTH 12.166 LUMPCC 0 DR

*CONN
*P *2 I *L 0 *C 24.760 0.258
*I *38:D I *L 0.558146 *C 23.240 10.624
*N *2:2 *C 23.240 10.612
*N *2:3 *C 23.240 10.472
*N *2:4 *C 23.254 10.472
*N *2:5 *C 24.747 10.472
*N *2:6 *C 24.760 10.459

*CAP
0 *2 0.4307063
1 *38:D 0.001
2 *2:2 0.008696908
3 *2:3 0.01012959
4 *2:4 0.06325778
5 *2:5 0.06325778
6 *2:6 0.4283341

*RES
0 *2 *2:6 18.21518
1 *2:2 *38:D 1
2 *2:3 *2:2 0.2325
3 *2:4 *2:3 0.5
4 *2:6 *2:5 0.5
5 *2:5 *2:4 2.666071

*END

*D_NET *3 0.8138607 //LENGTH 9.306 LUMPCC 0 DR

*CONN
*P *3 I *L 0 *C 21.264 0.258
*I *39:D I *L 0.558146 *C 18.349 6.064
*N *3:2 *C 18.236 6.064
*N *3:3 *C 18.224 6.051
*N *3:4 *C 18.224 5.912
*N *3:5 *C 18.238 5.912
*N *3:6 *C 21.251 5.912
*N *3:7 *C 21.264 5.899

*CAP
0 *3 0.2603636
1 *39:D 0.01343841
2 *3:2 0.01136301
3 *3:3 0.0176442
4 *3:4 0.01734738
5 *3:5 0.1178564
6 *3:6 0.1178564
7 *3:7 0.2579914

*RES
0 *3 *3:7 10.07232
1 *3:2 *39:D 0.1866667
2 *3:3 *3:2 1
3 *3:4 *3:3 0.2325
4 *3:5 *3:4 0.5
5 *3:7 *3:6 0.5
6 *3:6 *3:5 5.380358

*END

*D_NET *4 1.721214 //LENGTH 14.337 LUMPCC 0 DR

*CONN
*P *4 I *L 0 *C 17.160 0.258
*I *40:D I *L 0.558146 *C 17.148 13.968
*N *4:2 *C 17.021 13.968
*N *4:3 *C 17.008 13.955
*N *4:4 *C 17.008 5.317
*N *4:5 *C 17.008 5.304
*N *4:6 *C 17.148 5.304
*N *4:7 *C 17.160 5.291

*CAP
0 *4 0.1509637
1 *40:D 0.01415474
2 *4:2 0.01207934
3 *4:3 0.6906142
4 *4:4 0.6903174
5 *4:5 0.007246138
6 *4:6 0.007246684
7 *4:7 0.1485921

*RES
0 *4 *4:7 8.986609
1 *4:2 *40:D 0.2116667
2 *4:3 *4:2 1
3 *4:4 *4:3 15.42322
4 *4:5 *4:4 0.5
5 *4:6 *4:5 0.2325
6 *4:7 *4:6 0.5

*END

*D_NET *5 0.9244626 //LENGTH 13.342 LUMPCC 0 DR

*CONN
*P *5 I *L 0 *C 20.504 0.258
*I *41:D I *L 0.558146 *C 20.656 12.752
*N *5:2 *C 20.656 12.739
*N *5:3 *C 20.656 12.309
*N *5:4 *C 20.656 12.296
*N *5:5 *C 20.796 12.296
*N *5:6 *C 20.808 12.283
*N *5:7 *C 20.808 3.784
*N *5:8 *C 20.504 3.784

*CAP
0 *5 0.1044763
1 *41:D 0.001
2 *5:2 0.0314195
3 *5:3 0.03285218
4 *5:4 0.01023026
5 *5:5 0.01023081
6 *5:6 0.3023416
7 *5:7 0.3160744
8 *5:8 0.1158374

*RES
0 *5 *5:8 6.296429
1 *5:2 *41:D 1
2 *5:3 *5:2 0.7660714
3 *5:4 *5:3 0.5
4 *5:5 *5:4 0.2325
5 *5:6 *5:5 0.5
6 *5:8 *5:7 0.5428572
7 *5:7 *5:6 15.17589

*END

*D_NET *6 1.595666 //LENGTH 18.770 LUMPCC 0 DR

*CONN
*P *6 I *L 0 *C 20.504 0.258
*I *42:D I *L 0.558146 *C 21.112 17.312
*N *6:2 *C 21.112 17.300
*N *6:3 *C 21.112 17.160
*N *6:4 *C 21.099 17.160
*N *6:5 *C 20.213 17.160
*N *6:6 *C 20.200 17.146
*N *6:7 *C 20.200 3.798
*N *6:8 *C 20.213 3.784
*N *6:9 *C 20.491 3.784
*N *6:10 *C 20.504 3.771

*CAP
0 *6 0.1397256
1 *42:D 0.001
2 *6:2 0.008424316
3 *6:3 0.009856994
4 *6:4 0.03481858
5 *6:5 0.03481858
6 *6:6 0.6033028
7 *6:7 0.6033028
8 *6:8 0.01153148
9 *6:9 0.01153148
10 *6:10 0.1373533

*RES
0 *6 *6:10 6.272322
1 *6:2 *42:D 1
2 *6:3 *6:2 0.2325
3 *6:4 *6:3 0.5
4 *6:6 *6:5 0.5
5 *6:5 *6:4 1.580357
6 *6:7 *6:6 23.8375
7 *6:8 *6:7 0.5
8 *6:10 *6:9 0.5
9 *6:9 *6:8 0.4946429

*END

*D_NET *7 1.076154 //LENGTH 10.913 LUMPCC 0 DR

*CONN
*P *7 I *L 0 *C 18.680 0.258
*I *43:D I *L 0.558146 *C 18.059 9.408
*N *7:2 *C 17.933 9.408
*N *7:3 *C 17.920 9.396
*N *7:4 *C 17.920 9.256
*N *7:5 *C 17.934 9.256
*N *7:6 *C 18.666 9.256
*N *7:7 *C 18.680 9.242
*N *7:8 *C 18.680 5.608
*N *7:9 *C 18.832 5.608
*N *7:10 *C 18.832 3.784
*N *7:11 *C 18.680 3.784

*CAP
0 *7 0.1562779
1 *43:D 0.01617494
2 *7:2 0.01409954
3 *7:3 0.009884468
4 *7:4 0.009587649
5 *7:5 0.03124862
6 *7:6 0.03124862
7 *7:7 0.2143049
8 *7:8 0.2248965
9 *7:9 0.1032026
10 *7:10 0.1019671
11 *7:11 0.1632618

*RES
0 *7 *7:11 6.296429
1 *7:2 *43:D 0.2116667
2 *7:3 *7:2 1
3 *7:4 *7:3 0.2325
4 *7:5 *7:4 0.5
5 *7:7 *7:6 0.5
6 *7:6 *7:5 1.308928
7 *7:11 *7:10 0.2714286
8 *7:10 *7:9 3.257143
9 *7:8 *7:7 6.49018
10 *7:9 *7:8 0.2714286

*END

*D_NET *8 1.320417 //LENGTH 12.794 LUMPCC 0 DR

*CONN
*P *8 I *L 0 *C 18.376 0.273
*I *44:D I *L 0.558146 *C 17.145 10.624
*N *8:2 *C 16.719 10.624
*N *8:3 *C 16.704 10.611
*N *8:4 *C 16.704 8.206
*N *8:5 *C 16.719 8.192
*N *8:6 *C 18.361 8.192
*N *8:7 *C 18.376 8.178

*CAP
0 *8 0.3868718
1 *44:D 0.02887163
2 *8:2 0.02679623
3 *8:3 0.1436622
4 *8:4 0.1436622
5 *8:5 0.1028785
6 *8:6 0.1028785
7 *8:7 0.3847964

*RES
0 *8 *8:7 14.11697
1 *8:2 *44:D 0.852
2 *8:3 *8:2 1
3 *8:5 *8:4 1
4 *8:4 *8:3 4.294643
5 *8:6 *8:5 3.284
6 *8:7 *8:6 1

*END

*D_NET *9 2.292529 //LENGTH 24.061 LUMPCC 0 DR

*CONN
*P *9 I *L 0 *C 20.960 0.258
*I *45:D I *L 0.558146 *C 20.808 24.000
*N *9:2 *C 20.808 23.986
*N *9:3 *C 20.808 10.472
*N *9:4 *C 20.960 10.472

*CAP
0 *9 0.4556839
1 *45:D 0.001
2 *9:2 0.6799051
3 *9:3 0.6919833
4 *9:4 0.4639572

*RES
0 *9 *9:4 18.23929
1 *9:2 *45:D 1
2 *9:3 *9:2 24.13304
3 *9:4 *9:3 0.2714286

*END

*D_NET *10 2.25331 //LENGTH 28.518 LUMPCC 0 DR

*CONN
*P *10 I *L 0 *C 18.072 0.258
*I *46:D I *L 0.558146 *C 17.130 26.128
*N *10:2 *C 16.871 26.128
*N *10:3 *C 16.856 26.114
*N *10:4 *C 16.856 24.470
*N *10:5 *C 16.870 24.456
*N *10:6 *C 18.363 24.456
*N *10:7 *C 18.376 24.443
*N *10:8 *C 18.376 5.622
*N *10:9 *C 18.363 5.608
*N *10:10 *C 18.085 5.608
*N *10:11 *C 18.072 5.595

*CAP
0 *10 0.2716264
1 *46:D 0.02132753
2 *10:2 0.01925214
3 *10:3 0.07560938
4 *10:4 0.07531256
5 *10:5 0.05798562
6 *10:6 0.05798617
7 *10:7 0.6866091
8 *10:8 0.6866091
9 *10:9 0.01586943
10 *10:10 0.01586889
11 *10:11 0.2692542

*RES
0 *10 *10:11 9.529465
1 *10:2 *46:D 0.5180001
2 *10:3 *10:2 1
3 *10:4 *10:3 2.9375
4 *10:5 *10:4 0.5
5 *10:6 *10:5 2.666071
6 *10:7 *10:6 0.5
7 *10:9 *10:8 0.5
8 *10:8 *10:7 33.60893
9 *10:11 *10:10 0.5
10 *10:10 *10:9 0.4946429

*END

*D_NET *11 0.8094945 //LENGTH 9.534 LUMPCC 0 DR

*CONN
*P *11 I *L 0 *C 26.888 0.258
*I *47:D I *L 0.558146 *C 27.162 9.408
*N *11:2 *C 26.903 9.408
*N *11:3 *C 26.888 9.395

*CAP
0 *11 0.3880785
1 *47:D 0.01874416
2 *11:2 0.01666876
3 *11:3 0.3860031

*RES
0 *11 *11:3 16.31518
1 *11:2 *47:D 0.5180001
2 *11:3 *11:2 1

*END

*D_NET *12 1.71558 //LENGTH 21.957 LUMPCC 0 DR

*CONN
*P *12 I *L 0 *C 21.720 0.258
*I *48:D I *L 0.558146 *C 20.656 20.656
*N *12:2 *C 20.656 20.643
*N *12:3 *C 20.656 19.910
*N *12:4 *C 20.669 19.896
*N *12:5 *C 21.402 19.896
*N *12:6 *C 21.416 19.883
*N *12:7 *C 21.416 5.014
*N *12:8 *C 21.430 5.000
*N *12:9 *C 21.707 5.000
*N *12:10 *C 21.720 4.987

*CAP
0 *12 0.219991
1 *48:D 0.001
2 *12:2 0.05051749
3 *12:3 0.05195017
4 *12:4 0.0312373
5 *12:5 0.03123784
6 *12:6 0.5425404
7 *12:7 0.5425404
8 *12:8 0.01347347
9 *12:9 0.01347292
10 *12:10 0.2176188

*RES
0 *12 *12:10 8.44375
1 *12:2 *48:D 1
2 *12:3 *12:2 1.308929
3 *12:4 *12:3 0.5
4 *12:5 *12:4 1.308929
5 *12:6 *12:5 0.5
6 *12:8 *12:7 0.5
7 *12:7 *12:6 26.55179
8 *12:10 *12:9 0.5
9 *12:9 *12:8 0.4946429

*END

*D_NET *13 2.337749 //LENGTH 32.749 LUMPCC 0 DR

*CONN
*P *13 I *L 0 *C 17.768 0.258
*I *49:D I *L 0.558146 *C 17.160 30.688
*N *13:2 *C 17.160 30.675
*N *13:3 *C 17.160 29.334
*N *13:4 *C 17.146 29.320
*N *13:5 *C 16.566 29.320
*N *13:6 *C 16.552 29.306
*N *13:7 *C 16.552 6.230
*N *13:8 *C 16.566 6.216
*N *13:9 *C 17.755 6.216
*N *13:10 *C 17.768 6.203

*CAP
0 *13 0.29586
1 *49:D 0.001
2 *13:2 0.05196026
3 *13:3 0.05339294
4 *13:4 0.02310331
5 *13:5 0.02310386
6 *13:6 0.7516239
7 *13:7 0.7516239
8 *13:8 0.046297
9 *13:9 0.04629645
10 *13:10 0.2934877

*RES
0 *13 *13:10 10.61518
1 *13:2 *49:D 1
2 *13:3 *13:2 2.394643
3 *13:4 *13:3 0.5
4 *13:5 *13:4 1.0375
5 *13:6 *13:5 0.5
6 *13:8 *13:7 0.5
7 *13:7 *13:6 41.20892
8 *13:10 *13:9 0.5
9 *13:9 *13:8 2.123214

*END

*D_NET *14 2.304253 //LENGTH 22.910 LUMPCC 0 DR

*CONN
*P *14 I *L 0 *C 16.856 0.258
*I *50:D I *L 0.558146 *C 17.130 22.784
*N *14:2 *C 16.871 22.784
*N *14:3 *C 16.856 22.771

*CAP
0 *14 1.134606
1 *50:D 0.01959626
2 *14:2 0.01752086
3 *14:3 1.13253

*RES
0 *14 *14:3 40.20089
1 *14:2 *50:D 0.5180001
2 *14:3 *14:2 1

*END

*D_NET *15 2.447989 //LENGTH 31.361 LUMPCC 0 DR

*CONN
*P *15 I *L 0 *C 22.024 0.258
*I *51:D I *L 0.558146 *C 20.504 29.472
*N *15:2 *C 21.842 7.128
*N *15:3 *C 20.504 29.459
*N *15:4 *C 20.504 29.030
*N *15:5 *C 20.518 29.016
*N *15:6 *C 22.011 29.016
*N *15:7 *C 22.024 29.003
*N *15:8 *C 22.024 7.142
*N *15:9 *C 22.012 7.128
*N *15:10 *C 22.024 7.115

*CAP
0 *15 0.328767
1 *51:D 0.001
2 *15:2 0.01183421
3 *15:3 0.02480103
4 *15:4 0.02623371
5 *15:5 0.06334814
6 *15:6 0.0633487
7 *15:7 0.7975858
8 *15:8 0.7975858
9 *15:9 0.007090322
10 *15:10 0.3263947

*RES
0 *15 *15:10 12.24375
1 *15:3 *51:D 1
2 *15:4 *15:3 0.7660714
3 *15:5 *15:4 0.5
4 *15:6 *15:5 2.666072
5 *15:7 *15:6 0.5
6 *15:9 *15:8 0.5
7 *15:9 *15:2 0.2825
8 *15:8 *15:7 39.03749
9 *15:10 *15:9 0.5

*END

*D_NET *16 1.866846 //LENGTH 20.025 LUMPCC 0 DR

*CONN